# "$Id$"
SHELL = /bin/sh

# Path to source files:
S = ..

CONFDIR=../../..

# Use the libmls.a directory, libdir, for .mod files
# dir1 is the path prepended to its .o files in dependency lists
libdir = ../../../lib/$(MLSCONFG)

dir1 = $(libdir)/

# sources shared by l2, l3 are in $(srclib)
# these USE init_tables_module, which is different for l2 from the l3 version
# while l2 and l3 use the same sources in srclib they do
# require different objects--thus a source library instead of an object
# library (such as libmls.a)
# therefore we will tell make to add srclib to directories searched for .f90
# while dir2, the path prepended to its .o files in dependency lists, is empty
# so that its object files share the current working directory with those of l2
srclib = ../../../srclib

# This is the directory name from which we will get init_tables_module
# (either l1, l2, or l3)
init_m_dir = l2

libl2_sources = ../../../$(init_m_dir)/

itmdir=../../../$(init_m_dir)/$(MLSCONFG)

dir2 = $(itmdir)/

# Use the libmlspack.a directory, blaslib, for .mod files
blaslib = $(CONFDIR)/blas/$(MLSCONFG)

# Use the fwdmdl directory, fwdmdldir, for more .mod files
# dir3 is the path prepended to its .o files in dependency lists
fwdmdldir = ../../../fwdmdl/$(MLSCONFG)

dir3 = $(fwdmdldir)/

# Use the cloud directory, clouddir, for more .mod files
# dir4 is the path prepended to its .o files in dependency lists
clouddir = ../../../cloudfwdm/$(MLSCONFG)

dir4 = $(clouddir)/

# Use the libmlspack.a directory, blaslib, for .mod files
blaslib = ../../../blas/$(MLSCONFG)

MODPATHS = $(dir1) $(dir2) $(dir3) $(dir4) $(blaslib)

UTILDIR=../../../util

# reecho.sh can filter out globbed file expansions that fail
# e.g., '*.f90 *.f' -> '*.f90" if there aren't any .f files
# However we will be using it just to create lapack_linker_line 
# where LIB_LAPACK may contain multiple libraries
REECHO=$(UTILDIR)/reecho.sh

# Set paths for finding source files (different from .o and .mod)

vpath %.o ./
vpath %.f90 ../ $(srclib)
vpath %.f9h ../ $(srclib) $(libl2_sources)
vpath %.f ../ $(PGSINC)
vpath %.c ../

include $(srclib)/$(MLSF95).$(MLSPLAT)
# All the paths to supply .mod and INCLUDE files used in compiling %.f90
# Precede each path by "-I "
INC_PATHS := $(EXTRA_PATHS) \
  $(shell ${REECHO} ${PATH_OPTS} \
  $(UNPREFXDPTHS) $(MODPATHS) $(PGSINC) $(srclib) $(libl2_sources) $S)

# Define some suffix rules

.SUFFIXES:
.SUFFIXES: .o .dbg.o .f90 .f .c
.f90.o:
	$(FC) -c $(FOPTS) $(INC_PATHS) $< $(FAFTER)

.f90.dbg.o:
	$(FC) -c $(FOPTS) $(INC_PATHS) $< -o $*.dbg.o $(FAFTER)

.f.o:
	$(FC) -c $(FOPTS) $(INC_PATHS) $< $(FAFTER)

.c.o:
	$(CC) -c $(COPTS) ${INC_PATHS} -DNAGf90Fortran $<

# This is the default name of the configure file
# It may be overridden for multiple platforms, special options, etc.
ifdef HOSTMLSCFILE
   MLSCFILE=$(HOSTMLSCFILE)
else
   MLSCFILE=.configure
endif

include ../Makefile.dep

# ========================================================================
# An automatically constructed Makefile
# This file was built by mlsconfigure
# by catenating three files:
# (1) .configure -- a file of mls settings: compiler, platform, etc.
# (2) common     -- a file of macros specific for this directory, e.g. paths
#                   these might be compiler switches, 
# (3) targets    -- a file of targets with instructions how to build them
#                    (except for .f90.o rules which are still in MLSCONFG)

# Other files referred to by means of "include" statements:
#   srclib/$(MLSF95).$(MLSPLAT) -- macros specific for the 
#         compiler.platform combo; e.g., NAG.Sun
#   Makefile.dep -- dependencies among the primary Fortran modules
#   srclib/Makefile.dep -- dependencies among the shared Fortran modules
#   srclib/targets.h -- linker lines whenever building an executable

# ========================================================================
ifdef MLSINSTALLDIR
   INSTALLDIR:=$(MLSINSTALLDIR)
else
ifndef INSTALLDIR
   INSTALLDIR:=$(CONFDIR)/bin/$(MLSCONFG)
endif
endif

STATIC_LINK := $(shell echo $(LDOPTS) | grep -e "-static")
ALLOBJS = $(OBJS)

PROG_NAME=test

include $(srclib)/targets.h

libl2_f90 := $(shell ${REECHO} $(libl2_sources)/*.f90)

libl2_objs := $(shell ${REECHO} $(itmdir)/*.o)

l2_driver = mlsl2 test.o

# "yes" is safer--
# in case modules have been deleted or excluded since the last build
# Nope--will need to think harder about what to do about excluded modules
delete_lib_first = no

mlspack_dir=../../../blas/$(MLSCONFG)
mlspack_linker_line=-L${mlspack_dir} -lmlspack
mlspack_message=Building $(PROG_NAME) with mlspack

# In the long run just evict the stuff that assumes l2_NEEDS_fwdmdl is undefined
l2_NEEDS_fwdmdl = true

fwdmdl_linker_line=-L${fwdmdldir} -lfwdmdl
fwdmdl_message=Building $(PROG_NAME) with forward model
cloud_linker_line=-L${clouddir} -lcloud
cloud_message=Building $(PROG_NAME) with cloud forward model
utctotai_linker_line=-L${INSTALLDIR} -lutctotai
utctotai_message=Building $(PROG_NAME) with toolkitless utc to tai conversion
mlsl2_prereqs=$(ALLOBJS) $(PVM_OBJS) $(libdir)/libmls.a libl2.a \
	 $(fwdmdldir)/libfwdmdl.a $(clouddir)/libcloud.a $(CONFDIR)/$(MLSCFILE)

# ========================================================================
libl2.a: $(libl2_objs)
ifeq ($(delete_lib_first),yes)
		rm -f $@
endif
	ar ru $@ $?
	ar d $@ $(itmdir)/$(l2_driver)

$(PROG_NAME): $(mlsl2_prereqs)
		@echo "$(pvm_message)"
		@echo "$(blas_message)"
		@echo "$(lapack_message)"
		@echo "$(hdf5_message)"
		@echo "$(fwdmdl_message)"
		@echo "$(cloud_message)"
		@echo "$(mlspack_message)"
		@echo "$(utctotai_message)"
		$(FC) $(LDOPTS) -o $(PROG_NAME) $(ALLOBJS) $(PVM_OBJS)  \
      -L./ -ll2 \
        $(cloud_linker_line) \
        $(fwdmdl_linker_line) \
      -L${libdir} -lmls \
        $(utctotai_linker_line) \
		-L${PGSTK} -lPGSTK \
        -L${HDFEOS} -lhdfeos \
        $(hdfeos5_linker_line) \
		-L${HDF} -lmfhdf \
        -ldf \
        -lz \
        -ljpeg -lsz \
		-L${GCTP} -lGctp \
        $(pvm_linker_line) \
        $(blas_linker_line) \
        $(lapack_linker_line) \
        $(mlspack_linker_line) \
        $(hdf5_linker_line) \
        $(l_specials) $(LAFTER) \

# ========================================================================

clean:
	rm -f *.o *.mod $(PROG_NAME)

tar:
	rm -f libtest.tgz
	tar hcvzf libtest.tgz * --exclude \*.o --exclude \*.mod --exclude $(PROG_NAME)

# ========================================================================
# $Log$
# Revision 1.29  2010/08/27 20:57:16  pwagner
# Uses optional HDF*INC Makefile variables
#
# Revision 1.28  2009/09/22 16:54:43  pwagner
# Fixed bug concrning include files from l2 home directory
#
# Revision 1.27  2009/07/17 20:27:32  pwagner
# Added COPTS as cc options
#
# Revision 1.26  2009/06/11 20:11:16  pwagner
# Needed blaslib among paths for NAG to search for .mod files
#
# Revision 1.25  2007/05/29 17:42:19  pwagner
# compiler-specific settings now in srclib, not platforms
#
# Revision 1.24  2006/06/15 19:31:05  pwagner
# Now links szlib; comtaible with toolkit 5.2.14.A
#
# Revision 1.23  2005/03/04 19:13:31  pwagner
# Utilizes targets.h from srclib
#
# Revision 1.22  2004/03/17 19:06:45  pwagner
# Extra static object to fix building static Lahey executables when Red Hat>8
#
# Revision 1.21  2003/03/03 22:59:32  pwagner
# Removed troublesome customblds includes
#
# Revision 1.20  2003/02/06 18:17:08  pwagner
# Now links in utctotai library
#
# Revision 1.19  2002/11/25 21:21:02  pwagner
# gcc_version to allow building with Lahey on gcc post 2.96
#
# Revision 1.18  2002/09/06 00:09:07  pwagner
# BLAS can now bring in more than a single
#
# Revision 1.17  2002/08/27 23:03:12  pwagner
# Treats LF95 better
#
# Revision 1.16  2002/04/18 20:55:28  pwagner
# .configure now a prerequisite for executable
#
# Revision 1.15  2002/02/21 00:53:58  pwagner
# Brought up-to-date with versions in main directory
#
# Revision 1.14  2001/11/21 00:25:34  pwagner
# Added hdfeos5_linker_line
#
# Revision 1.13  2001/11/16 19:15:32  pwagner
# Added stuff to work with mlspack
#
# Revision 1.12  2001/11/07 00:31:44  pwagner
# Added lapack linker line and msg
#
# Revision 1.11  2001/10/11 18:15:29  pwagner
# Allows PROG_NAME variable to specify name of executable built
#
# Revision 1.10  2001/08/13 18:09:08  pwagner
# replaced shell echo -> shell {REECHO}
#
# Revision 1.9  2001/07/16 18:00:21  pwagner
# Builds correctly with hdf5 on new and older Linux
#
# Revision 1.8  2001/06/06 23:51:27  pwagner
# hdf5 linker line if needed
#
# Revision 1.7  2001/05/30 20:45:23  pwagner
# Set delete_lib_first to no with note to think harder
#
# Revision 1.6  2001/05/29 22:35:31  pwagner
# Added delete_lib_first
#
# Revision 1.5  2001/05/18 23:30:23  pwagner
# Brought into harmony with latest non-tests versions
#
# Revision 1.4  2001/03/14 00:20:58  pwagner
# Brought up-to-date with non-test versions
#
# Revision 1.3  2001/02/08 23:20:52  pwagner
# variable_linker_line tied to PVM and BLAS
#
# Revision 1.2  2001/02/05 19:40:17  pwagner
# LDOPTS added to load statements
#
# Revision 1.1  2001/02/01 23:12:32  pwagner
# First commit
#
#
